%chk=eth_rhf.chk
%mem=1GB
%nprocshared=1
#p nosymm int=nobasistransform RHF/def2svp 5D 7F

HF file generated by AutoMR of MOKIT

0 1
C         0.73236300    -0.00001200    -0.00002000
H         1.30178800    -0.65477800     0.65483500
H         1.30180200     0.65484800    -0.65476200
C        -0.73236300    -0.00001200     0.00002000
H        -1.30178800    -0.65477800    -0.65483600
H        -1.30180200     0.65484800     0.65476200


