%subst l530 ../phf
!%subst l601 .
%nproc=1
%mem=4GB
!%oldchk=gauuhf.chk
%chk=testn.chk
! 206: print level, 207: phf type, 216: turn on diis
#p uhf/3-21g nosymm guess=mix scf=conver=4 
# extralink=l530 iop(5/206=9, 5/207=4, 5/212=10, 5/214=6, 5/216=1, 5/218=35) pop=none 

title

0 1
N 0.0 0.0 0.0
N 0.0 0.0 2.0

